notebook_tutorials/synthetic_net_opendss/master_sample_84.dss
clear
new circuit.synthetic_net basekv=157.6864406779661 pu=1.0 phases=3
edit Vsource.source bus1=bus_68.1.2.3

!---------------- LINES ----------------

new linecode.LCode_0 nphases=1 rmatrix=[0.995375] xmatrix=[1.354401] units=km
new line.line_0 bus1=bus_0.2 bus2=bus_1.2 linecode=LCode_0 length=1.0 units=km
new linecode.LCode_1 nphases=1 rmatrix=[0.791327] xmatrix=[1.306295] units=km
new line.line_1 bus1=bus_0.2 bus2=bus_2.2 linecode=LCode_1 length=1.0 units=km
new linecode.LCode_2 nphases=1 rmatrix=[0.703529] xmatrix=[1.372073] units=km
new line.line_2 bus1=bus_3.2 bus2=bus_4.2 linecode=LCode_2 length=1.0 units=km
new linecode.LCode_3 nphases=1 rmatrix=[0.386011] xmatrix=[1.575070] units=km
new line.line_3 bus1=bus_2.2 bus2=bus_4.2 linecode=LCode_3 length=1.0 units=km
new linecode.LCode_4 nphases=1 rmatrix=[0.711298] xmatrix=[1.281822] units=km
new line.line_4 bus1=bus_4.2 bus2=bus_5.2 linecode=LCode_4 length=1.0 units=km
new linecode.LCode_5 nphases=1 rmatrix=[0.771836] xmatrix=[1.950374] units=km
new line.line_5 bus1=bus_5.2 bus2=bus_6.2 linecode=LCode_5 length=1.0 units=km
new linecode.LCode_6 nphases=1 rmatrix=[0.690933] xmatrix=[1.302616] units=km
new line.line_6 bus1=bus_7.2 bus2=bus_8.2 linecode=LCode_6 length=1.0 units=km
new linecode.LCode_7 nphases=1 rmatrix=[0.678378] xmatrix=[1.242115] units=km
new line.line_7 bus1=bus_8.2 bus2=bus_9.2 linecode=LCode_7 length=1.0 units=km
new linecode.LCode_8 nphases=1 rmatrix=[0.388755] xmatrix=[1.242115] units=km
new line.line_8 bus1=bus_3.2 bus2=bus_10.2 linecode=LCode_8 length=1.0 units=km
new linecode.LCode_9 nphases=1 rmatrix=[0.837842] xmatrix=[1.287389] units=km
new line.line_9 bus1=bus_4.2 bus2=bus_10.2 linecode=LCode_9 length=1.0 units=km
new linecode.LCode_10 nphases=1 rmatrix=[0.614300] xmatrix=[1.242115] units=km
new line.line_10 bus1=bus_10.2 bus2=bus_11.2 linecode=LCode_10 length=1.0 units=km
new linecode.LCode_11 nphases=1 rmatrix=[0.737924] xmatrix=[1.517651] units=km
new line.line_11 bus1=bus_1.2 bus2=bus_11.2 linecode=LCode_11 length=1.0 units=km
new linecode.LCode_12 nphases=1 rmatrix=[0.753467] xmatrix=[1.416160] units=km
new line.line_12 bus1=bus_2.2 bus2=bus_11.2 linecode=LCode_12 length=1.0 units=km
new linecode.LCode_13 nphases=1 rmatrix=[0.508162] xmatrix=[1.250983] units=km
new line.line_13 bus1=bus_6.2 bus2=bus_11.2 linecode=LCode_13 length=1.0 units=km
new linecode.LCode_16 nphases=1 rmatrix=[0.635000] xmatrix=[1.421420] units=km
new line.line_16 bus1=bus_12.1 bus2=bus_14.1 linecode=LCode_16 length=1.0 units=km
new linecode.LCode_17 nphases=1 rmatrix=[0.877020] xmatrix=[1.242115] units=km
new line.line_17 bus1=bus_13.1 bus2=bus_14.1 linecode=LCode_17 length=1.0 units=km
new linecode.LCode_18 nphases=1 rmatrix=[0.791793] xmatrix=[1.348488] units=km
new line.line_18 bus1=bus_11.2 bus2=bus_15.2 linecode=LCode_18 length=1.0 units=km
new linecode.LCode_20 nphases=1 rmatrix=[1.014140] xmatrix=[1.316775] units=km
new line.line_20 bus1=bus_15.2 bus2=bus_16.2 linecode=LCode_20 length=1.0 units=km
new linecode.LCode_21 nphases=1 rmatrix=[0.576799] xmatrix=[1.242115] units=km
new line.line_21 bus1=bus_16.2 bus2=bus_17.2 linecode=LCode_21 length=1.0 units=km
new linecode.LCode_24 nphases=1 rmatrix=[0.752097] xmatrix=[1.604667] units=km
new line.line_24 bus1=bus_14.1 bus2=bus_18.1 linecode=LCode_24 length=1.0 units=km
new linecode.LCode_25 nphases=2 rmatrix=[1.308370 | 0.059160 1.308370] xmatrix=[1.242115 | 1.024695 1.242115] units=km
new line.line_25 bus1=bus_19.2.3 bus2=bus_20.2.3 linecode=LCode_25 length=1.0 units=km
new linecode.LCode_26 nphases=2 rmatrix=[0.998427 | 0.059160 0.998427] xmatrix=[1.383470 | 1.024695 1.383470] units=km
new line.line_26 bus1=bus_20.2.3 bus2=bus_21.2.3 linecode=LCode_26 length=1.0 units=km
new linecode.LCode_27 nphases=2 rmatrix=[0.859590 | 0.059160 0.859590] xmatrix=[1.311370 | 1.024695 1.311370] units=km
new line.line_27 bus1=bus_21.2.3 bus2=bus_22.2.3 linecode=LCode_27 length=1.0 units=km
new linecode.LCode_28 nphases=2 rmatrix=[0.289925 | 0.059160 0.289925] xmatrix=[1.242115 | 1.024695 1.242115] units=km
new line.line_28 bus1=bus_22.2.3 bus2=bus_23.2.3 linecode=LCode_28 length=1.0 units=km
new linecode.LCode_30 nphases=1 rmatrix=[0.720351] xmatrix=[1.561045] units=km
new line.line_30 bus1=bus_24.1 bus2=bus_26.1 linecode=LCode_30 length=1.0 units=km
new linecode.LCode_31 nphases=1 rmatrix=[0.808224] xmatrix=[1.242115] units=km
new line.line_31 bus1=bus_26.1 bus2=bus_27.1 linecode=LCode_31 length=1.0 units=km
new linecode.LCode_32 nphases=1 rmatrix=[1.312574] xmatrix=[1.295300] units=km
new line.line_32 bus1=bus_27.1 bus2=bus_28.1 linecode=LCode_32 length=1.0 units=km
new linecode.LCode_33 nphases=1 rmatrix=[0.630679] xmatrix=[1.242115] units=km
new line.line_33 bus1=bus_7.2 bus2=bus_29.2 linecode=LCode_33 length=1.0 units=km
new linecode.LCode_36 nphases=1 rmatrix=[1.133035] xmatrix=[1.540145] units=km
new line.line_36 bus1=bus_28.1 bus2=bus_30.1 linecode=LCode_36 length=1.0 units=km
new linecode.LCode_38 nphases=1 rmatrix=[0.724140] xmatrix=[1.295954] units=km
new line.line_38 bus1=bus_30.1 bus2=bus_31.1 linecode=LCode_38 length=1.0 units=km
new linecode.LCode_39 nphases=1 rmatrix=[0.356401] xmatrix=[1.242115] units=km
new line.line_39 bus1=bus_26.1 bus2=bus_31.1 linecode=LCode_39 length=1.0 units=km
new linecode.LCode_40 nphases=1 rmatrix=[0.633480] xmatrix=[1.417021] units=km
new line.line_40 bus1=bus_14.1 bus2=bus_32.1 linecode=LCode_40 length=1.0 units=km
new linecode.LCode_41 nphases=1 rmatrix=[0.793063] xmatrix=[1.604663] units=km
new line.line_41 bus1=bus_18.1 bus2=bus_33.1 linecode=LCode_41 length=1.0 units=km
new linecode.LCode_42 nphases=1 rmatrix=[0.864600] xmatrix=[1.399891] units=km
new line.line_42 bus1=bus_34.1 bus2=bus_35.1 linecode=LCode_42 length=1.0 units=km
new linecode.LCode_43 nphases=1 rmatrix=[0.965067] xmatrix=[1.401160] units=km
new line.line_43 bus1=bus_34.1 bus2=bus_36.1 linecode=LCode_43 length=1.0 units=km
new linecode.LCode_44 nphases=1 rmatrix=[0.721177] xmatrix=[1.439033] units=km
new line.line_44 bus1=bus_32.1 bus2=bus_36.1 linecode=LCode_44 length=1.0 units=km
new linecode.LCode_45 nphases=1 rmatrix=[0.866498] xmatrix=[1.263161] units=km
new line.line_45 bus1=bus_33.1 bus2=bus_35.1 linecode=LCode_45 length=1.0 units=km
new linecode.LCode_46 nphases=1 rmatrix=[1.339242] xmatrix=[1.489823] units=km
new line.line_46 bus1=bus_33.1 bus2=bus_36.1 linecode=LCode_46 length=1.0 units=km
new linecode.LCode_47 nphases=1 rmatrix=[0.174748] xmatrix=[1.242115] units=km
new line.line_47 bus1=bus_36.1 bus2=bus_38.1 linecode=LCode_47 length=1.0 units=km
new linecode.LCode_48 nphases=1 rmatrix=[0.677309] xmatrix=[1.242115] units=km
new line.line_48 bus1=bus_36.1 bus2=bus_39.1 linecode=LCode_48 length=1.0 units=km
new linecode.LCode_49 nphases=1 rmatrix=[0.901954] xmatrix=[1.242115] units=km
new line.line_49 bus1=bus_29.2 bus2=bus_37.2 linecode=LCode_49 length=1.0 units=km
new linecode.LCode_50 nphases=1 rmatrix=[0.776917] xmatrix=[1.355503] units=km
new line.line_50 bus1=bus_38.1 bus2=bus_39.1 linecode=LCode_50 length=1.0 units=km
new linecode.LCode_51 nphases=1 rmatrix=[0.833085] xmatrix=[1.242115] units=km
new line.line_51 bus1=bus_39.1 bus2=bus_40.1 linecode=LCode_51 length=1.0 units=km
new linecode.LCode_52 nphases=1 rmatrix=[0.632671] xmatrix=[1.242115] units=km
new line.line_52 bus1=bus_39.1 bus2=bus_41.1 linecode=LCode_52 length=1.0 units=km
new linecode.LCode_53 nphases=2 rmatrix=[1.213008 | 0.059160 1.213008] xmatrix=[1.662438 | 1.024695 1.662438] units=km
new line.line_53 bus1=bus_40.1.2 bus2=bus_41.1.2 linecode=LCode_53 length=1.0 units=km
new linecode.LCode_54 nphases=1 rmatrix=[0.519556] xmatrix=[1.242115] units=km
new line.line_54 bus1=bus_42.2 bus2=bus_43.2 linecode=LCode_54 length=1.0 units=km
new linecode.LCode_56 nphases=1 rmatrix=[0.706161] xmatrix=[1.326858] units=km
new line.line_56 bus1=bus_43.2 bus2=bus_44.2 linecode=LCode_56 length=1.0 units=km
new linecode.LCode_58 nphases=1 rmatrix=[0.759040] xmatrix=[1.242115] units=km
new line.line_58 bus1=bus_45.3 bus2=bus_46.3 linecode=LCode_58 length=1.0 units=km
new linecode.LCode_61 nphases=2 rmatrix=[1.268750 | 0.059160 1.268750] xmatrix=[1.485553 | 1.024695 1.485553] units=km
new line.line_61 bus1=bus_41.1.2 bus2=bus_48.1.2 linecode=LCode_61 length=1.0 units=km
new linecode.LCode_62 nphases=2 rmatrix=[0.656511 | 0.059160 0.656511] xmatrix=[1.242115 | 1.024695 1.242115] units=km
new line.line_62 bus1=bus_41.1.2 bus2=bus_48.1.2 linecode=LCode_62 length=1.0 units=km
new linecode.LCode_63 nphases=1 rmatrix=[0.225674] xmatrix=[1.242115] units=km
new line.line_63 bus1=bus_44.2 bus2=bus_48.2 linecode=LCode_63 length=1.0 units=km
new linecode.LCode_64 nphases=2 rmatrix=[0.564607 | 0.059160 0.564607] xmatrix=[1.310832 | 1.024695 1.310832] units=km
new line.line_64 bus1=bus_47.1.2 bus2=bus_48.1.2 linecode=LCode_64 length=1.0 units=km
new linecode.LCode_65 nphases=2 rmatrix=[0.532009 | 0.059160 0.532009] xmatrix=[1.317365 | 1.024695 1.317365] units=km
new line.line_65 bus1=bus_48.1.2 bus2=bus_49.1.2 linecode=LCode_65 length=1.0 units=km
new linecode.LCode_66 nphases=1 rmatrix=[0.281224] xmatrix=[1.351795] units=km
new line.line_66 bus1=bus_48.1 bus2=bus_50.1 linecode=LCode_66 length=1.0 units=km
new linecode.LCode_67 nphases=1 rmatrix=[0.769494] xmatrix=[1.274983] units=km
new line.line_67 bus1=bus_50.1 bus2=bus_51.1 linecode=LCode_67 length=1.0 units=km
new linecode.LCode_68 nphases=1 rmatrix=[1.329190] xmatrix=[1.242115] units=km
new line.line_68 bus1=bus_51.1 bus2=bus_52.1 linecode=LCode_68 length=1.0 units=km
new linecode.LCode_69 nphases=2 rmatrix=[0.852214 | 0.059160 0.852214] xmatrix=[1.506007 | 1.024695 1.506007] units=km
new line.line_69 bus1=bus_52.1.2 bus2=bus_53.1.2 linecode=LCode_69 length=1.0 units=km
new linecode.LCode_70 nphases=2 rmatrix=[0.619329 | 0.059160 0.619329] xmatrix=[1.375018 | 1.024695 1.375018] units=km
new line.line_70 bus1=bus_48.1.2 bus2=bus_53.1.2 linecode=LCode_70 length=1.0 units=km
new linecode.LCode_71 nphases=2 rmatrix=[1.087121 | 0.059160 1.087121] xmatrix=[1.247505 | 1.024695 1.247505] units=km
new line.line_71 bus1=bus_48.1.2 bus2=bus_53.1.2 linecode=LCode_71 length=1.0 units=km
new linecode.LCode_72 nphases=2 rmatrix=[0.945248 | 0.059160 0.945248] xmatrix=[1.447919 | 1.024695 1.447919] units=km
new line.line_72 bus1=bus_53.1.2 bus2=bus_54.1.2 linecode=LCode_72 length=1.0 units=km
new linecode.LCode_73 nphases=2 rmatrix=[0.327423 | 0.059160 0.327423] xmatrix=[1.408784 | 1.024695 1.408784] units=km
new line.line_73 bus1=bus_53.1.2 bus2=bus_55.1.2 linecode=LCode_73 length=1.0 units=km
new linecode.LCode_74 nphases=2 rmatrix=[0.918553 | 0.059160 0.918553] xmatrix=[1.242115 | 1.024695 1.242115] units=km
new line.line_74 bus1=bus_54.1.2 bus2=bus_55.1.2 linecode=LCode_74 length=1.0 units=km
new linecode.LCode_75 nphases=2 rmatrix=[0.838983 | 0.059160 0.838983] xmatrix=[1.295779 | 1.024695 1.295779] units=km
new line.line_75 bus1=bus_55.1.2 bus2=bus_56.1.2 linecode=LCode_75 length=1.0 units=km
new linecode.LCode_76 nphases=2 rmatrix=[0.726485 | 0.059160 0.726485] xmatrix=[1.337962 | 1.024695 1.337962] units=km
new line.line_76 bus1=bus_49.1.2 bus2=bus_56.1.2 linecode=LCode_76 length=1.0 units=km
new linecode.LCode_77 nphases=1 rmatrix=[0.588467] xmatrix=[1.242115] units=km
new line.line_77 bus1=bus_55.1 bus2=bus_57.1 linecode=LCode_77 length=1.0 units=km
new linecode.LCode_78 nphases=1 rmatrix=[0.357229] xmatrix=[1.242115] units=km
new line.line_78 bus1=bus_50.1 bus2=bus_57.1 linecode=LCode_78 length=1.0 units=km
new linecode.LCode_79 nphases=1 rmatrix=[0.345375] xmatrix=[1.282104] units=km
new line.line_79 bus1=bus_53.1 bus2=bus_58.1 linecode=LCode_79 length=1.0 units=km
new linecode.LCode_80 nphases=1 rmatrix=[0.837099] xmatrix=[1.242115] units=km
new line.line_80 bus1=bus_55.1 bus2=bus_58.1 linecode=LCode_80 length=1.0 units=km
new linecode.LCode_81 nphases=1 rmatrix=[0.481125] xmatrix=[1.242115] units=km
new line.line_81 bus1=bus_55.1 bus2=bus_58.1 linecode=LCode_81 length=1.0 units=km
new linecode.LCode_82 nphases=1 rmatrix=[1.115170] xmatrix=[1.242115] units=km
new line.line_82 bus1=bus_54.1 bus2=bus_58.1 linecode=LCode_82 length=1.0 units=km
new linecode.LCode_83 nphases=1 rmatrix=[0.206777] xmatrix=[1.242115] units=km
new line.line_83 bus1=bus_58.1 bus2=bus_59.1 linecode=LCode_83 length=1.0 units=km
new linecode.LCode_84 nphases=1 rmatrix=[0.511061] xmatrix=[1.359984] units=km
new line.line_84 bus1=bus_58.1 bus2=bus_60.1 linecode=LCode_84 length=1.0 units=km
new linecode.LCode_85 nphases=1 rmatrix=[0.612706] xmatrix=[1.242115] units=km
new line.line_85 bus1=bus_59.1 bus2=bus_60.1 linecode=LCode_85 length=1.0 units=km
new linecode.LCode_86 nphases=1 rmatrix=[0.823718] xmatrix=[1.242115] units=km
new line.line_86 bus1=bus_59.1 bus2=bus_61.1 linecode=LCode_86 length=1.0 units=km
new linecode.LCode_87 nphases=1 rmatrix=[0.662532] xmatrix=[1.427668] units=km
new line.line_87 bus1=bus_60.1 bus2=bus_61.1 linecode=LCode_87 length=1.0 units=km
new linecode.LCode_88 nphases=1 rmatrix=[0.626421] xmatrix=[1.438186] units=km
new line.line_88 bus1=bus_62.2 bus2=bus_63.2 linecode=LCode_88 length=1.0 units=km
new linecode.LCode_89 nphases=1 rmatrix=[1.107865] xmatrix=[1.293211] units=km
new line.line_89 bus1=bus_37.2 bus2=bus_64.2 linecode=LCode_89 length=1.0 units=km
new linecode.LCode_90 nphases=1 rmatrix=[0.640555] xmatrix=[1.532703] units=km
new line.line_90 bus1=bus_63.2 bus2=bus_64.2 linecode=LCode_90 length=1.0 units=km
new linecode.LCode_91 nphases=1 rmatrix=[0.245540] xmatrix=[1.350288] units=km
new line.line_91 bus1=bus_48.1 bus2=bus_65.1 linecode=LCode_91 length=1.0 units=km
new linecode.LCode_92 nphases=1 rmatrix=[0.414002] xmatrix=[1.243272] units=km
new line.line_92 bus1=bus_48.1 bus2=bus_65.1 linecode=LCode_92 length=1.0 units=km
new linecode.LCode_93 nphases=1 rmatrix=[0.652545] xmatrix=[1.242115] units=km
new line.line_93 bus1=bus_61.1 bus2=bus_65.1 linecode=LCode_93 length=1.0 units=km
new linecode.LCode_94 nphases=1 rmatrix=[0.203565] xmatrix=[1.426023] units=km
new line.line_94 bus1=bus_61.1 bus2=bus_66.1 linecode=LCode_94 length=1.0 units=km
new linecode.LCode_95 nphases=1 rmatrix=[0.802348] xmatrix=[1.242115] units=km
new line.line_95 bus1=bus_65.1 bus2=bus_66.1 linecode=LCode_95 length=1.0 units=km
new linecode.LCode_96 nphases=1 rmatrix=[0.200917] xmatrix=[1.242115] units=km
new line.line_96 bus1=bus_46.3 bus2=bus_68.3 linecode=LCode_96 length=1.0 units=km
new linecode.LCode_97 nphases=2 rmatrix=[0.281551 | 0.059160 0.281551] xmatrix=[1.242115 | 1.024695 1.242115] units=km
new line.line_97 bus1=bus_48.1.2 bus2=bus_68.1.2 linecode=LCode_97 length=1.0 units=km
new linecode.LCode_98 nphases=2 rmatrix=[0.640232 | 0.059160 0.640232] xmatrix=[1.437654 | 1.024695 1.437654] units=km
new line.line_98 bus1=bus_68.2.3 bus2=bus_69.2.3 linecode=LCode_98 length=1.0 units=km
new linecode.LCode_99 nphases=2 rmatrix=[0.218231 | 0.059160 0.218231] xmatrix=[1.242115 | 1.024695 1.242115] units=km
new line.line_99 bus1=bus_23.2.3 bus2=bus_69.2.3 linecode=LCode_99 length=1.0 units=km
new linecode.LCode_100 nphases=2 rmatrix=[0.391234 | 0.059160 0.391234] xmatrix=[1.242115 | 1.024695 1.242115] units=km
new line.line_100 bus1=bus_69.2.3 bus2=bus_70.2.3 linecode=LCode_100 length=1.0 units=km
new linecode.LCode_101 nphases=2 rmatrix=[1.196833 | 0.059160 1.196833] xmatrix=[1.242115 | 1.024695 1.242115] units=km
new line.line_101 bus1=bus_23.2.3 bus2=bus_71.2.3 linecode=LCode_101 length=1.0 units=km
new linecode.LCode_102 nphases=2 rmatrix=[1.243721 | 0.059160 1.243721] xmatrix=[1.274367 | 1.024695 1.274367] units=km
new line.line_102 bus1=bus_70.2.3 bus2=bus_71.2.3 linecode=LCode_102 length=1.0 units=km
new linecode.LCode_103 nphases=2 rmatrix=[0.704424 | 0.059160 0.704424] xmatrix=[1.344568 | 1.024695 1.344568] units=km
new line.line_103 bus1=bus_70.2.3 bus2=bus_72.2.3 linecode=LCode_103 length=1.0 units=km
new linecode.LCode_104 nphases=2 rmatrix=[0.329946 | 0.059160 0.329946] xmatrix=[1.391051 | 1.024695 1.391051] units=km
new line.line_104 bus1=bus_69.2.3 bus2=bus_73.2.3 linecode=LCode_104 length=1.0 units=km
new linecode.LCode_105 nphases=2 rmatrix=[0.270020 | 0.059160 0.270020] xmatrix=[1.427416 | 1.024695 1.427416] units=km
new line.line_105 bus1=bus_69.2.3 bus2=bus_74.2.3 linecode=LCode_105 length=1.0 units=km
new linecode.LCode_106 nphases=2 rmatrix=[0.507023 | 0.059160 0.507023] xmatrix=[1.347820 | 1.024695 1.347820] units=km
new line.line_106 bus1=bus_68.2.3 bus2=bus_74.2.3 linecode=LCode_106 length=1.0 units=km
new linecode.LCode_107 nphases=2 rmatrix=[0.297093 | 0.059160 0.297093] xmatrix=[1.919551 | 1.024695 1.919551] units=km
new line.line_107 bus1=bus_73.2.3 bus2=bus_74.2.3 linecode=LCode_107 length=1.0 units=km
new linecode.LCode_108 nphases=2 rmatrix=[0.606752 | 0.059160 0.606752] xmatrix=[1.312981 | 0.940589 1.312981] units=km
new line.line_108 bus1=bus_75.1.3 bus2=bus_76.1.3 linecode=LCode_108 length=1.0 units=km
new linecode.LCode_109 nphases=2 rmatrix=[0.266107 | 0.059160 0.266107] xmatrix=[1.242115 | 0.940589 1.242115] units=km
new line.line_109 bus1=bus_68.1.3 bus2=bus_76.1.3 linecode=LCode_109 length=1.0 units=km
new linecode.LCode_110 nphases=1 rmatrix=[0.258921] xmatrix=[1.662552] units=km
new line.line_110 bus1=bus_74.3 bus2=bus_76.3 linecode=LCode_110 length=1.0 units=km
new linecode.LCode_111 nphases=2 rmatrix=[0.419354 | 0.059160 0.419354] xmatrix=[1.242115 | 0.940589 1.242115] units=km
new line.line_111 bus1=bus_76.1.3 bus2=bus_77.1.3 linecode=LCode_111 length=1.0 units=km
new linecode.LCode_112 nphases=2 rmatrix=[1.049209 | 0.059160 1.049209] xmatrix=[1.242115 | 0.940589 1.242115] units=km
new line.line_112 bus1=bus_77.1.3 bus2=bus_78.1.3 linecode=LCode_112 length=1.0 units=km
new linecode.LCode_113 nphases=2 rmatrix=[0.466884 | 0.059160 0.466884] xmatrix=[1.410569 | 0.940589 1.410569] units=km
new line.line_113 bus1=bus_76.1.3 bus2=bus_79.1.3 linecode=LCode_113 length=1.0 units=km
new linecode.LCode_114 nphases=2 rmatrix=[0.387798 | 0.059160 0.387798] xmatrix=[1.301677 | 0.940589 1.301677] units=km
new line.line_114 bus1=bus_76.1.3 bus2=bus_79.1.3 linecode=LCode_114 length=1.0 units=km
new linecode.LCode_115 nphases=2 rmatrix=[0.227578 | 0.059160 0.227578] xmatrix=[1.242115 | 0.940589 1.242115] units=km
new line.line_115 bus1=bus_78.1.3 bus2=bus_79.1.3 linecode=LCode_115 length=1.0 units=km
new linecode.LCode_116 nphases=2 rmatrix=[0.513625 | 0.059160 0.513625] xmatrix=[1.412650 | 0.940589 1.412650] units=km
new line.line_116 bus1=bus_76.1.3 bus2=bus_81.1.3 linecode=LCode_116 length=1.0 units=km
new linecode.LCode_118 nphases=1 rmatrix=[0.261218] xmatrix=[1.292517] units=km
new line.line_118 bus1=bus_82.2 bus2=bus_83.2 linecode=LCode_118 length=1.0 units=km
new linecode.LCode_119 nphases=1 rmatrix=[1.067237] xmatrix=[1.485523] units=km
new line.line_119 bus1=bus_82.2 bus2=bus_84.2 linecode=LCode_119 length=1.0 units=km
new linecode.LCode_120 nphases=1 rmatrix=[0.775323] xmatrix=[1.344618] units=km
new line.line_120 bus1=bus_83.2 bus2=bus_84.2 linecode=LCode_120 length=1.0 units=km
new linecode.LCode_121 nphases=1 rmatrix=[0.666620] xmatrix=[1.267828] units=km
new line.line_121 bus1=bus_84.2 bus2=bus_85.2 linecode=LCode_121 length=1.0 units=km
new linecode.LCode_122 nphases=1 rmatrix=[0.619215] xmatrix=[1.277309] units=km
new line.line_122 bus1=bus_84.2 bus2=bus_87.2 linecode=LCode_122 length=1.0 units=km
new linecode.LCode_123 nphases=1 rmatrix=[0.659873] xmatrix=[1.511532] units=km
new line.line_123 bus1=bus_84.2 bus2=bus_88.2 linecode=LCode_123 length=1.0 units=km
new linecode.LCode_124 nphases=1 rmatrix=[1.019054] xmatrix=[1.536549] units=km
new line.line_124 bus1=bus_87.2 bus2=bus_88.2 linecode=LCode_124 length=1.0 units=km
new linecode.LCode_125 nphases=1 rmatrix=[0.489276] xmatrix=[1.308838] units=km
new line.line_125 bus1=bus_88.2 bus2=bus_89.2 linecode=LCode_125 length=1.0 units=km
new linecode.LCode_126 nphases=1 rmatrix=[0.577915] xmatrix=[1.242115] units=km
new line.line_126 bus1=bus_88.2 bus2=bus_89.2 linecode=LCode_126 length=1.0 units=km
new linecode.LCode_130 nphases=1 rmatrix=[0.574250] xmatrix=[1.328880] units=km
new line.line_130 bus1=bus_90.3 bus2=bus_91.3 linecode=LCode_130 length=1.0 units=km
new linecode.LCode_131 nphases=1 rmatrix=[1.090788] xmatrix=[1.242115] units=km
new line.line_131 bus1=bus_91.3 bus2=bus_92.3 linecode=LCode_131 length=1.0 units=km
new linecode.LCode_132 nphases=1 rmatrix=[0.213027] xmatrix=[1.242115] units=km
new line.line_132 bus1=bus_91.3 bus2=bus_93.3 linecode=LCode_132 length=1.0 units=km
new linecode.LCode_133 nphases=1 rmatrix=[1.068060] xmatrix=[1.257115] units=km
new line.line_133 bus1=bus_92.3 bus2=bus_93.3 linecode=LCode_133 length=1.0 units=km
new linecode.LCode_134 nphases=1 rmatrix=[0.210488] xmatrix=[1.242115] units=km
new line.line_134 bus1=bus_93.3 bus2=bus_94.3 linecode=LCode_134 length=1.0 units=km
new linecode.LCode_135 nphases=2 rmatrix=[1.055512 | 0.059160 1.055512] xmatrix=[1.242115 | 0.940589 1.242115] units=km
new line.line_135 bus1=bus_79.1.3 bus2=bus_95.1.3 linecode=LCode_135 length=1.0 units=km
new linecode.LCode_136 nphases=2 rmatrix=[0.755723 | 0.059160 0.755723] xmatrix=[1.242115 | 0.940589 1.242115] units=km
new line.line_136 bus1=bus_81.1.3 bus2=bus_95.1.3 linecode=LCode_136 length=1.0 units=km
new linecode.LCode_137 nphases=1 rmatrix=[0.667726] xmatrix=[1.242115] units=km
new line.line_137 bus1=bus_93.3 bus2=bus_95.3 linecode=LCode_137 length=1.0 units=km
new linecode.LCode_138 nphases=2 rmatrix=[0.267604 | 0.059160 0.267604] xmatrix=[1.242115 | 0.940589 1.242115] units=km
new line.line_138 bus1=bus_79.1.3 bus2=bus_96.1.3 linecode=LCode_138 length=1.0 units=km
new linecode.LCode_139 nphases=2 rmatrix=[0.854183 | 0.059160 0.854183] xmatrix=[1.312578 | 0.940589 1.312578] units=km
new line.line_139 bus1=bus_79.1.3 bus2=bus_97.1.3 linecode=LCode_139 length=1.0 units=km
new linecode.LCode_140 nphases=2 rmatrix=[0.537514 | 0.059160 0.537514] xmatrix=[1.496877 | 0.940589 1.496877] units=km
new line.line_140 bus1=bus_79.1.3 bus2=bus_98.1.3 linecode=LCode_140 length=1.0 units=km
new linecode.LCode_143 nphases=2 rmatrix=[0.491321 | 0.059160 0.491321] xmatrix=[1.409358 | 0.940589 1.409358] units=km
new line.line_143 bus1=bus_94.1.3 bus2=bus_95.1.3 linecode=LCode_143 length=1.0 units=km
new linecode.LCode_144 nphases=2 rmatrix=[0.367827 | 0.059160 0.367827] xmatrix=[1.242115 | 0.940589 1.242115] units=km
new line.line_144 bus1=bus_95.1.3 bus2=bus_96.1.3 linecode=LCode_144 length=1.0 units=km
new linecode.LCode_147 nphases=1 rmatrix=[0.470861] xmatrix=[1.392930] units=km
new line.line_147 bus1=bus_99.2 bus2=bus_100.2 linecode=LCode_147 length=1.0 units=km
new linecode.LCode_148 nphases=1 rmatrix=[0.701852] xmatrix=[1.242115] units=km
new line.line_148 bus1=bus_91.3 bus2=bus_101.3 linecode=LCode_148 length=1.0 units=km
new linecode.LCode_150 nphases=1 rmatrix=[1.077277] xmatrix=[1.370686] units=km
new line.line_150 bus1=bus_99.2 bus2=bus_102.2 linecode=LCode_150 length=1.0 units=km
new linecode.LCode_151 nphases=1 rmatrix=[0.404193] xmatrix=[1.242115] units=km
new line.line_151 bus1=bus_99.2 bus2=bus_103.2 linecode=LCode_151 length=1.0 units=km
new linecode.LCode_152 nphases=1 rmatrix=[0.739584] xmatrix=[1.488945] units=km
new line.line_152 bus1=bus_102.2 bus2=bus_103.2 linecode=LCode_152 length=1.0 units=km
new linecode.LCode_153 nphases=1 rmatrix=[0.221747] xmatrix=[1.402362] units=km
new line.line_153 bus1=bus_102.2 bus2=bus_104.2 linecode=LCode_153 length=1.0 units=km
new linecode.LCode_154 nphases=1 rmatrix=[0.717821] xmatrix=[1.769813] units=km
new line.line_154 bus1=bus_99.2 bus2=bus_105.2 linecode=LCode_154 length=1.0 units=km
new linecode.LCode_155 nphases=1 rmatrix=[0.785096] xmatrix=[1.242115] units=km
new line.line_155 bus1=bus_103.2 bus2=bus_104.2 linecode=LCode_155 length=1.0 units=km
new linecode.LCode_156 nphases=1 rmatrix=[0.837038] xmatrix=[1.291939] units=km
new line.line_156 bus1=bus_104.2 bus2=bus_105.2 linecode=LCode_156 length=1.0 units=km
new linecode.LCode_157 nphases=1 rmatrix=[0.627852] xmatrix=[1.242115] units=km
new line.line_157 bus1=bus_104.2 bus2=bus_106.2 linecode=LCode_157 length=1.0 units=km
new linecode.LCode_158 nphases=1 rmatrix=[0.882976] xmatrix=[1.352315] units=km
new line.line_158 bus1=bus_104.2 bus2=bus_107.2 linecode=LCode_158 length=1.0 units=km
new linecode.LCode_159 nphases=1 rmatrix=[1.224395] xmatrix=[1.284152] units=km
new line.line_159 bus1=bus_105.2 bus2=bus_106.2 linecode=LCode_159 length=1.0 units=km
new linecode.LCode_160 nphases=1 rmatrix=[0.974301] xmatrix=[1.242115] units=km
new line.line_160 bus1=bus_107.2 bus2=bus_108.2 linecode=LCode_160 length=1.0 units=km
new linecode.LCode_161 nphases=1 rmatrix=[0.802652] xmatrix=[1.242115] units=km
new line.line_161 bus1=bus_102.2 bus2=bus_109.2 linecode=LCode_161 length=1.0 units=km
new linecode.LCode_162 nphases=1 rmatrix=[1.097373] xmatrix=[1.536529] units=km
new line.line_162 bus1=bus_108.2 bus2=bus_109.2 linecode=LCode_162 length=1.0 units=km
new linecode.LCode_163 nphases=1 rmatrix=[0.533414] xmatrix=[1.608687] units=km
new line.line_163 bus1=bus_109.2 bus2=bus_110.2 linecode=LCode_163 length=1.0 units=km
new linecode.LCode_164 nphases=1 rmatrix=[0.710192] xmatrix=[1.242115] units=km
new line.line_164 bus1=bus_109.2 bus2=bus_111.2 linecode=LCode_164 length=1.0 units=km
new linecode.LCode_166 nphases=1 rmatrix=[0.540345] xmatrix=[1.242115] units=km
new line.line_166 bus1=bus_31.1 bus2=bus_112.1 linecode=LCode_166 length=1.0 units=km
new linecode.LCode_167 nphases=1 rmatrix=[0.957138] xmatrix=[1.242115] units=km
new line.line_167 bus1=bus_31.1 bus2=bus_113.1 linecode=LCode_167 length=1.0 units=km
new linecode.LCode_168 nphases=1 rmatrix=[0.783478] xmatrix=[1.305034] units=km
new line.line_168 bus1=bus_26.1 bus2=bus_114.1 linecode=LCode_168 length=1.0 units=km
new linecode.LCode_169 nphases=1 rmatrix=[0.463336] xmatrix=[1.242115] units=km
new line.line_169 bus1=bus_113.1 bus2=bus_114.1 linecode=LCode_169 length=1.0 units=km
new linecode.LCode_170 nphases=1 rmatrix=[0.829035] xmatrix=[1.268507] units=km
new line.line_170 bus1=bus_11.2 bus2=bus_116.2 linecode=LCode_170 length=1.0 units=km
new linecode.LCode_171 nphases=2 rmatrix=[0.346277 | 0.059160 0.346277] xmatrix=[1.302451 | 1.024695 1.302451] units=km
new line.line_171 bus1=bus_74.2.3 bus2=bus_117.2.3 linecode=LCode_171 length=1.0 units=km
new linecode.LCode_172 nphases=1 rmatrix=[0.697387] xmatrix=[1.242115] units=km
new line.line_172 bus1=bus_75.3 bus2=bus_117.3 linecode=LCode_172 length=1.0 units=km

!---------------- LOADS ----------------

new load.load_0_B bus1=bus_0.2 Phases=1 kv=157.6864406779661 kw=2261.933081875192 kvar=741.914050855063 vminpu=0.85
new load.load_1_B bus1=bus_1.2 Phases=1 kv=157.6864406779661 kw=2189.925300362193 kvar=718.2954985187993 vminpu=0.85
new load.load_2_B bus1=bus_2.2 Phases=1 kv=157.6864406779661 kw=1912.777824002134 kvar=627.3911262726999 vminpu=0.85
new load.load_3_B bus1=bus_3.2 Phases=1 kv=157.6864406779661 kw=1884.9741412829253 kvar=618.2715183407995 vminpu=0.85
new load.load_4_B bus1=bus_4.2 Phases=1 kv=157.6864406779661 kw=1776.2783779130543 kvar=582.6193079554819 vminpu=0.85
new load.load_5_B bus1=bus_5.2 Phases=1 kv=157.6864406779661 kw=2823.145601612235 kvar=925.9917573288132 vminpu=0.85
new load.load_6_B bus1=bus_6.2 Phases=1 kv=157.6864406779661 kw=2039.5901032184677 kvar=668.9855538556574 vminpu=0.85
new load.load_7_B bus1=bus_7.2 Phases=1 kv=157.6864406779661 kw=2051.258844465728 kvar=672.8129009847588 vminpu=0.85
new load.load_8_B bus1=bus_8.2 Phases=1 kv=157.6864406779661 kw=2444.9778094548 kvar=801.9527215011744 vminpu=0.85
new load.load_9_B bus1=bus_9.2 Phases=1 kv=157.6864406779661 kw=2427.709446975414 kvar=796.2886986079358 vminpu=0.85
new load.load_10_B bus1=bus_10.2 Phases=1 kv=157.6864406779661 kw=2552.6037909155098 kvar=837.2540434202872 vminpu=0.85
new load.load_11_B bus1=bus_11.2 Phases=1 kv=157.6864406779661 kw=2508.124493049973 kvar=822.6648337203911 vminpu=0.85
new load.load_12_A bus1=bus_12.1 Phases=1 kv=157.6864406779661 kw=2198.273061610637 kvar=721.0335642082889 vminpu=0.85
new load.load_13_A bus1=bus_13.1 Phases=1 kv=157.6864406779661 kw=1506.8039139358384 kvar=494.23168377095504 vminpu=0.85
new load.load_14_A bus1=bus_14.1 Phases=1 kv=157.6864406779661 kw=2020.612270129388 kvar=662.7608246024392 vminpu=0.85
new load.load_15_B bus1=bus_15.2 Phases=1 kv=157.6864406779661 kw=1817.550971287704 kvar=596.1567185823669 vminpu=0.85
new load.load_16_B bus1=bus_16.2 Phases=1 kv=157.6864406779661 kw=2378.290771895301 kvar=780.0793731816588 vminpu=0.85
new load.load_17_B bus1=bus_17.2 Phases=1 kv=157.6864406779661 kw=2072.0138912308485 kvar=679.6205563237183 vminpu=0.85
new load.load_18_A bus1=bus_18.1 Phases=1 kv=157.6864406779661 kw=1871.4493958938424 kvar=613.8354018531803 vminpu=0.85
new load.load_19_B bus1=bus_19.2 Phases=1 kv=157.6864406779661 kw=1687.392818216261 kvar=553.4648443749336 vminpu=0.85
new load.load_19_C bus1=bus_19.3 Phases=1 kv=157.6864406779661 kw=18.3019938901895 kvar=6.003053995982157 vminpu=0.85
new load.load_20_B bus1=bus_20.2 Phases=1 kv=157.6864406779661 kw=2556.736878490668 kvar=838.6096961449391 vminpu=0.85
new load.load_20_C bus1=bus_20.3 Phases=1 kv=157.6864406779661 kw=194.1611667568405 kvar=63.684862696243684 vminpu=0.85
new load.load_21_B bus1=bus_21.2 Phases=1 kv=157.6864406779661 kw=482.992620240284 kvar=158.42157943881315 vminpu=0.85
new load.load_21_C bus1=bus_21.3 Phases=1 kv=157.6864406779661 kw=944.9488893319448 kvar=309.9432357008779 vminpu=0.85
new load.load_22_B bus1=bus_22.2 Phases=1 kv=157.6864406779661 kw=1044.0980927804485 kvar=342.46417443198715 vminpu=0.85
new load.load_22_C bus1=bus_22.3 Phases=1 kv=157.6864406779661 kw=1263.2835309085442 kvar=414.3569981380025 vminpu=0.85
new load.load_23_B bus1=bus_23.2 Phases=1 kv=157.6864406779661 kw=1106.1381325102434 kvar=362.8133074633599 vminpu=0.85
new load.load_23_C bus1=bus_23.3 Phases=1 kv=157.6864406779661 kw=775.6046820036895 kvar=254.39833569721017 vminpu=0.85
new load.load_24_A bus1=bus_24.1 Phases=1 kv=157.6864406779661 kw=1556.26594630593 kvar=510.455230388345 vminpu=0.85
new load.load_25_A bus1=bus_25.1 Phases=1 kv=157.6864406779661 kw=2333.200670004836 kvar=765.2898197615863 vminpu=0.85
new load.load_26_A bus1=bus_26.1 Phases=1 kv=157.6864406779661 kw=2503.5502021779603 kvar=821.164466314371 vminpu=0.85
new load.load_27_A bus1=bus_27.1 Phases=1 kv=157.6864406779661 kw=2105.052881957576 kvar=690.457345282085 vminpu=0.85
new load.load_28_A bus1=bus_28.1 Phases=1 kv=157.6864406779661 kw=1874.96078375647 kvar=614.9871370721222 vminpu=0.85
new load.load_29_B bus1=bus_29.2 Phases=1 kv=157.6864406779661 kw=2556.1364839040134 kvar=838.4127667205164 vminpu=0.85
new load.load_30_A bus1=bus_30.1 Phases=1 kv=157.6864406779661 kw=2274.288970117236 kvar=745.9667821984535 vminpu=0.85
new load.load_31_A bus1=bus_31.1 Phases=1 kv=157.6864406779661 kw=1817.426784669044 kvar=596.1159853714465 vminpu=0.85
new load.load_32_A bus1=bus_32.1 Phases=1 kv=157.6864406779661 kw=2007.0856752000088 kvar=658.3241014656029 vminpu=0.85
new load.load_33_A bus1=bus_33.1 Phases=1 kv=157.6864406779661 kw=2184.439011517247 kvar=716.495995777657 vminpu=0.85
new load.load_34_A bus1=bus_34.1 Phases=1 kv=157.6864406779661 kw=2664.648289617183 kvar=874.004638994436 vminpu=0.85
new load.load_35_A bus1=bus_35.1 Phases=1 kv=157.6864406779661 kw=1838.5789478292409 kvar=603.0538948879911 vminpu=0.85
new load.load_36_A bus1=bus_36.1 Phases=1 kv=157.6864406779661 kw=2199.8476931565174 kvar=721.5500433553377 vminpu=0.85
new load.load_37_B bus1=bus_37.2 Phases=1 kv=157.6864406779661 kw=1285.1745519984277 kvar=421.5372530554843 vminpu=0.85
new load.load_38_A bus1=bus_38.1 Phases=1 kv=157.6864406779661 kw=1603.8875360471393 kvar=526.0751118234617 vminpu=0.85
new load.load_39_A bus1=bus_39.1 Phases=1 kv=157.6864406779661 kw=2390.610132555163 kvar=784.1201234780935 vminpu=0.85
new load.load_40_A bus1=bus_40.1 Phases=1 kv=157.6864406779661 kw=1025.7729895082075 kvar=336.45354055869205 vminpu=0.85
new load.load_40_B bus1=bus_40.2 Phases=1 kv=157.6864406779661 kw=1695.1134730649037 kvar=555.9972191652885 vminpu=0.85
new load.load_41_A bus1=bus_41.1 Phases=1 kv=157.6864406779661 kw=905.7519656516062 kvar=297.0866447337268 vminpu=0.85
new load.load_41_B bus1=bus_41.2 Phases=1 kv=157.6864406779661 kw=962.1599158775427 kvar=315.58845240783404 vminpu=0.85
new load.load_42_B bus1=bus_42.2 Phases=1 kv=157.6864406779661 kw=1587.3982736019618 kvar=520.6666337414435 vminpu=0.85
new load.load_43_B bus1=bus_43.2 Phases=1 kv=157.6864406779661 kw=1503.569116459595 kvar=493.1706701987472 vminpu=0.85
new load.load_44_B bus1=bus_44.2 Phases=1 kv=157.6864406779661 kw=2336.1850926957545 kvar=766.2687104042075 vminpu=0.85
new load.load_45_C bus1=bus_45.3 Phases=1 kv=157.6864406779661 kw=2564.062756774472 kvar=841.0125842220268 vminpu=0.85
new load.load_46_C bus1=bus_46.3 Phases=1 kv=157.6864406779661 kw=2293.26315820374 kvar=752.1903158908268 vminpu=0.85
new load.load_47_A bus1=bus_47.1 Phases=1 kv=157.6864406779661 kw=1586.9274833529355 kvar=520.5122145397629 vminpu=0.85
new load.load_47_B bus1=bus_47.2 Phases=1 kv=157.6864406779661 kw=429.0099406910093 kvar=140.71526054665105 vminpu=0.85
new load.load_48_A bus1=bus_48.1 Phases=1 kv=157.6864406779661 kw=205.1286423719943 kvar=67.28219469801412 vminpu=0.85
new load.load_48_B bus1=bus_48.2 Phases=1 kv=157.6864406779661 kw=2034.1293517778315 kvar=667.1944273831288 vminpu=0.85
new load.load_49_A bus1=bus_49.1 Phases=1 kv=157.6864406779661 kw=1814.366221942117 kvar=595.1121207970144 vminpu=0.85
new load.load_49_B bus1=bus_49.2 Phases=1 kv=157.6864406779661 kw=413.8225372005368 kvar=135.73379220177605 vminpu=0.85
new load.load_50_A bus1=bus_50.1 Phases=1 kv=157.6864406779661 kw=2575.8104143082405 kvar=844.8658158931029 vminpu=0.85
new load.load_51_A bus1=bus_51.1 Phases=1 kv=157.6864406779661 kw=2203.38629142972 kvar=722.7107035889483 vminpu=0.85
new load.load_52_A bus1=bus_52.1 Phases=1 kv=157.6864406779661 kw=112.66395143873838 kvar=36.95377607190619 vminpu=0.85
new load.load_52_B bus1=bus_52.2 Phases=1 kv=157.6864406779661 kw=1854.2978437060235 kvar=608.2096927355757 vminpu=0.85
new load.load_53_A bus1=bus_53.1 Phases=1 kv=157.6864406779661 kw=1552.489133127047 kvar=509.2164356656714 vminpu=0.85
new load.load_53_B bus1=bus_53.2 Phases=1 kv=157.6864406779661 kw=1256.3291362411046 kvar=412.07595668708234 vminpu=0.85
new load.load_54_A bus1=bus_54.1 Phases=1 kv=157.6864406779661 kw=1191.9325639691435 kvar=390.9538809818791 vminpu=0.85
new load.load_54_B bus1=bus_54.2 Phases=1 kv=157.6864406779661 kw=961.335582963202 kvar=315.31807121193026 vminpu=0.85
new load.load_55_A bus1=bus_55.1 Phases=1 kv=157.6864406779661 kw=1518.202306670475 kvar=497.97035658791583 vminpu=0.85
new load.load_55_B bus1=bus_55.2 Phases=1 kv=157.6864406779661 kw=1023.6055030532924 kvar=335.74260500147994 vminpu=0.85
new load.load_56_A bus1=bus_56.1 Phases=1 kv=157.6864406779661 kw=176.0840275216817 kvar=57.7555610271116 vminpu=0.85
new load.load_56_B bus1=bus_56.2 Phases=1 kv=157.6864406779661 kw=1426.1772223621826 kvar=467.78612893479595 vminpu=0.85
new load.load_57_A bus1=bus_57.1 Phases=1 kv=157.6864406779661 kw=1698.2813243810947 kvar=557.036274396999 vminpu=0.85
new load.load_58_A bus1=bus_58.1 Phases=1 kv=157.6864406779661 kw=1722.923163564558 kvar=565.1187976491751 vminpu=0.85
new load.load_59_A bus1=bus_59.1 Phases=1 kv=157.6864406779661 kw=1686.054920777981 kvar=553.0260140151778 vminpu=0.85
new load.load_60_A bus1=bus_60.1 Phases=1 kv=157.6864406779661 kw=1616.018597579453 kvar=530.0541000060606 vminpu=0.85
new load.load_61_A bus1=bus_61.1 Phases=1 kv=157.6864406779661 kw=1896.2633454605404 kvar=621.9743773110573 vminpu=0.85
new load.load_62_B bus1=bus_62.2 Phases=1 kv=157.6864406779661 kw=2380.644558154576 kvar=780.8514150747009 vminpu=0.85
new load.load_63_B bus1=bus_63.2 Phases=1 kv=157.6864406779661 kw=2011.5386821417424 kvar=659.7846877424915 vminpu=0.85
new load.load_64_B bus1=bus_64.2 Phases=1 kv=157.6864406779661 kw=2056.0520658199275 kvar=674.3850775889363 vminpu=0.85
new load.load_65_A bus1=bus_65.1 Phases=1 kv=157.6864406779661 kw=1322.3989220257524 kvar=433.7468464244468 vminpu=0.85
new load.load_66_A bus1=bus_66.1 Phases=1 kv=157.6864406779661 kw=2121.2964446150786 kvar=695.7852338337458 vminpu=0.85
new load.load_67_A bus1=bus_67.1 Phases=1 kv=157.6864406779661 kw=775.1431487177562 kvar=254.24695277942402 vminpu=0.85
new load.load_67_B bus1=bus_67.2 Phases=1 kv=157.6864406779661 kw=1908.9716483407933 kvar=626.1427006557802 vminpu=0.85
new load.load_69_B bus1=bus_69.2 Phases=1 kv=157.6864406779661 kw=824.6837013385771 kvar=270.49625403905327 vminpu=0.85
new load.load_69_C bus1=bus_69.3 Phases=1 kv=157.6864406779661 kw=970.267712027656 kvar=318.24780954507116 vminpu=0.85
new load.load_70_B bus1=bus_70.2 Phases=1 kv=157.6864406779661 kw=165.4391912896939 kvar=54.2640547430196 vminpu=0.85
new load.load_70_C bus1=bus_70.3 Phases=1 kv=157.6864406779661 kw=1493.5316094744858 kvar=489.87836790763134 vminpu=0.85
new load.load_71_B bus1=bus_71.2 Phases=1 kv=157.6864406779661 kw=1662.817891495289 kvar=545.4042684104547 vminpu=0.85
new load.load_71_C bus1=bus_71.3 Phases=1 kv=157.6864406779661 kw=218.37990040068868 kvar=71.6286073314259 vminpu=0.85
new load.load_72_B bus1=bus_72.2 Phases=1 kv=157.6864406779661 kw=444.219948430483 kvar=145.70414308519844 vminpu=0.85
new load.load_72_C bus1=bus_72.3 Phases=1 kv=157.6864406779661 kw=1513.3979015776306 kvar=496.3945117174629 vminpu=0.85
new load.load_73_B bus1=bus_73.2 Phases=1 kv=157.6864406779661 kw=1125.914250308353 kvar=369.29987410113984 vminpu=0.85
new load.load_73_C bus1=bus_73.3 Phases=1 kv=157.6864406779661 kw=1005.5929800432104 kvar=329.83449745417306 vminpu=0.85
new load.load_74_B bus1=bus_74.2 Phases=1 kv=157.6864406779661 kw=338.6073573008616 kvar=111.06321319468262 vminpu=0.85
new load.load_74_C bus1=bus_74.3 Phases=1 kv=157.6864406779661 kw=1670.2493131230633 kvar=547.8417747043648 vminpu=0.85
new load.load_75_A bus1=bus_75.1 Phases=1 kv=157.6864406779661 kw=1361.043100552152 kvar=446.4221369811059 vminpu=0.85
new load.load_75_C bus1=bus_75.3 Phases=1 kv=157.6864406779661 kw=355.3248267047331 kvar=116.54654315915246 vminpu=0.85
new load.load_76_A bus1=bus_76.1 Phases=1 kv=157.6864406779661 kw=1115.6866338648465 kvar=365.94521590766965 vminpu=0.85
new load.load_76_C bus1=bus_76.3 Phases=1 kv=157.6864406779661 kw=1270.70620063791 kvar=416.79163380923444 vminpu=0.85
new load.load_77_A bus1=bus_77.1 Phases=1 kv=157.6864406779661 kw=165.38474663279388 kvar=54.246196895556395 vminpu=0.85
new load.load_77_C bus1=bus_77.3 Phases=1 kv=157.6864406779661 kw=1368.5124494056208 kvar=448.87208340504367 vminpu=0.85
new load.load_78_A bus1=bus_78.1 Phases=1 kv=157.6864406779661 kw=628.9715040601943 kvar=206.30265333174376 vminpu=0.85
new load.load_78_C bus1=bus_78.3 Phases=1 kv=157.6864406779661 kw=1294.0083728400768 kvar=424.4347462915452 vminpu=0.85
new load.load_79_A bus1=bus_79.1 Phases=1 kv=157.6864406779661 kw=1861.078398092908 kvar=610.4337145744738 vminpu=0.85
new load.load_79_C bus1=bus_79.3 Phases=1 kv=157.6864406779661 kw=55.711801028104816 kvar=18.273470737218382 vminpu=0.85
new load.load_80_A bus1=bus_80.1 Phases=1 kv=157.6864406779661 kw=1407.1740314332808 kvar=461.5530823101161 vminpu=0.85
new load.load_80_B bus1=bus_80.2 Phases=1 kv=157.6864406779661 kw=804.3408196474946 kvar=263.82378884437827 vminpu=0.85
new load.load_81_A bus1=bus_81.1 Phases=1 kv=157.6864406779661 kw=493.7585529678757 kvar=161.95280537346324 vminpu=0.85
new load.load_81_C bus1=bus_81.3 Phases=1 kv=157.6864406779661 kw=2121.3584648276537 kvar=695.8055764634704 vminpu=0.85
new load.load_82_B bus1=bus_82.2 Phases=1 kv=157.6864406779661 kw=2406.7219477559097 kvar=789.4047988639384 vminpu=0.85
new load.load_83_B bus1=bus_83.2 Phases=1 kv=157.6864406779661 kw=2213.038040419197 kvar=725.8764772574966 vminpu=0.85
new load.load_84_B bus1=bus_84.2 Phases=1 kv=157.6864406779661 kw=2164.245551470942 kvar=709.8725408824689 vminpu=0.85
new load.load_85_B bus1=bus_85.2 Phases=1 kv=157.6864406779661 kw=2295.3921952600067 kvar=752.8886400452823 vminpu=0.85
new load.load_86_B bus1=bus_86.2 Phases=1 kv=157.6864406779661 kw=2448.332096932567 kvar=803.052927793882 vminpu=0.85
new load.load_87_B bus1=bus_87.2 Phases=1 kv=157.6864406779661 kw=1932.0207506890777 kvar=633.7028062260175 vminpu=0.85
new load.load_88_B bus1=bus_88.2 Phases=1 kv=157.6864406779661 kw=1962.6299600485925 kvar=643.7426268959383 vminpu=0.85
new load.load_89_B bus1=bus_89.2 Phases=1 kv=157.6864406779661 kw=2016.1674671950943 kvar=661.3029292399909 vminpu=0.85
new load.load_90_C bus1=bus_90.3 Phases=1 kv=157.6864406779661 kw=2077.7479929149767 kvar=681.5013416761124 vminpu=0.85
new load.load_91_C bus1=bus_91.3 Phases=1 kv=157.6864406779661 kw=2108.8393957439043 kvar=691.6993218040006 vminpu=0.85
new load.load_92_C bus1=bus_92.3 Phases=1 kv=157.6864406779661 kw=1984.1019075121808 kvar=650.7854256639953 vminpu=0.85
new load.load_93_C bus1=bus_93.3 Phases=1 kv=157.6864406779661 kw=1571.4890331034244 kvar=515.4484028579233 vminpu=0.85
new load.load_94_A bus1=bus_94.1 Phases=1 kv=157.6864406779661 kw=113.182669489928 kvar=37.123915592696385 vminpu=0.85
new load.load_94_C bus1=bus_94.3 Phases=1 kv=157.6864406779661 kw=1518.963858004343 kvar=498.2201454254245 vminpu=0.85
new load.load_95_A bus1=bus_95.1 Phases=1 kv=157.6864406779661 kw=915.375284833222 kvar=300.2430934252968 vminpu=0.85
new load.load_95_C bus1=bus_95.3 Phases=1 kv=157.6864406779661 kw=1221.7282457447689 kvar=400.7268646042842 vminpu=0.85
new load.load_96_A bus1=bus_96.1 Phases=1 kv=157.6864406779661 kw=25.232442920024248 kvar=8.276241277767953 vminpu=0.85
new load.load_96_C bus1=bus_96.3 Phases=1 kv=157.6864406779661 kw=2261.708513620469 kvar=741.8403924675139 vminpu=0.85
new load.load_97_A bus1=bus_97.1 Phases=1 kv=157.6864406779661 kw=978.7152479258718 kvar=321.01860131968596 vminpu=0.85
new load.load_97_C bus1=bus_97.3 Phases=1 kv=157.6864406779661 kw=1381.8894937058258 kvar=453.25975393551084 vminpu=0.85
new load.load_98_A bus1=bus_98.1 Phases=1 kv=157.6864406779661 kw=199.6235216890854 kvar=65.47651511402002 vminpu=0.85
new load.load_98_C bus1=bus_98.3 Phases=1 kv=157.6864406779661 kw=1732.0508309765055 kvar=568.1126725602938 vminpu=0.85
new load.load_99_B bus1=bus_99.2 Phases=1 kv=157.6864406779661 kw=1553.5678676442135 kvar=509.5702605873021 vminpu=0.85
new load.load_100_B bus1=bus_100.2 Phases=1 kv=157.6864406779661 kw=2555.128381734052 kvar=838.082109208769 vminpu=0.85
new load.load_101_C bus1=bus_101.3 Phases=1 kv=157.6864406779661 kw=2258.2969597459078 kvar=740.7214027966578 vminpu=0.85
new load.load_102_B bus1=bus_102.2 Phases=1 kv=157.6864406779661 kw=2332.4825814365577 kvar=765.0542867111909 vminpu=0.85
new load.load_103_B bus1=bus_103.2 Phases=1 kv=157.6864406779661 kw=2168.6797873023447 kvar=711.3269702351691 vminpu=0.85
new load.load_104_B bus1=bus_104.2 Phases=1 kv=157.6864406779661 kw=1769.1727129335377 kvar=580.2886498422004 vminpu=0.85
new load.load_105_B bus1=bus_105.2 Phases=1 kv=157.6864406779661 kw=2177.097575114764 kvar=714.0880046376426 vminpu=0.85
new load.load_106_B bus1=bus_106.2 Phases=1 kv=157.6864406779661 kw=1492.541946055761 kvar=489.55375830628964 vminpu=0.85
new load.load_107_B bus1=bus_107.2 Phases=1 kv=157.6864406779661 kw=2174.736547770022 kvar=713.3135876685672 vminpu=0.85
new load.load_108_B bus1=bus_108.2 Phases=1 kv=157.6864406779661 kw=2154.8600720074687 kvar=706.7941036184498 vminpu=0.85
new load.load_109_B bus1=bus_109.2 Phases=1 kv=157.6864406779661 kw=2684.459953759529 kvar=880.5028648331256 vminpu=0.85
new load.load_110_B bus1=bus_110.2 Phases=1 kv=157.6864406779661 kw=2601.116136377738 kvar=853.1660927318981 vminpu=0.85
new load.load_111_B bus1=bus_111.2 Phases=1 kv=157.6864406779661 kw=1776.4319539877306 kvar=582.6696809079757 vminpu=0.85
new load.load_112_A bus1=bus_112.1 Phases=1 kv=157.6864406779661 kw=2659.687211314268 kvar=872.37740531108 vminpu=0.85
new load.load_113_A bus1=bus_113.1 Phases=1 kv=157.6864406779661 kw=2999.7306500155755 kvar=983.9116532051088 vminpu=0.85
new load.load_114_A bus1=bus_114.1 Phases=1 kv=157.6864406779661 kw=2057.841047441257 kvar=674.9718635607323 vminpu=0.85
new load.load_115_A bus1=bus_115.1 Phases=1 kv=157.6864406779661 kw=113.6753652006558 kvar=37.285519785815104 vminpu=0.85
new load.load_115_B bus1=bus_115.2 Phases=1 kv=157.6864406779661 kw=1805.9851227591823 kvar=592.3631202650118 vminpu=0.85
new load.load_116_B bus1=bus_116.2 Phases=1 kv=157.6864406779661 kw=2182.213859128948 kvar=715.766145794295 vminpu=0.85
new load.load_117_B bus1=bus_117.2 Phases=1 kv=157.6864406779661 kw=1033.4445454901506 kvar=338.9698109207694 vminpu=0.85
new load.load_117_C bus1=bus_117.3 Phases=1 kv=157.6864406779661 kw=721.9852829849418 kvar=236.8111728190609 vminpu=0.85

!---------------- SOLUTION ----------------

set controlmode=off
Set Voltagebases=[157.6864406779661]
calcv
Solve